*HEADING
Berkovich nanoindentation - fe16cr00 - deformable diamond cone - v16
** v15 complete fix set:
**   [from v14] surf_sub S1→S3 (top face), surf_ind S1 correct, SURFACE TO SURFACE, slave/master correct
**   [v15 new]  K_contact: 307430→10000 MPa/um (S-to-S area-integrates; old value 30x too stiff)
**   [v15 new]  sigma_inf: 307.43→10.0 MPa (scaled with K)
**   [v15 new]  UNSYM on all STEP (S-to-S creates unsymmetric stiffness matrix)
**   [v15 new]  max_inc: 0.002→0.001 (finer increments for stable contact patch growth)
** v16 changes:
**   [v16 new]  Step 11 added: unloading from -1.01000 to -0.10100 um (90% unload, Oliver-Pharr)
**   [v16 new]  *RESTART, WRITE added at end of Step 10 (peak load state saved)
** Units: um / uN / MPa. Cone 70.3deg. Total depth 1.01 um (0.01 gap + 1.0 indent)
** Substrate Fe16Cr0 single-crystal aniso BCC; Indenter diamond E=1141000 MPa nu=0.07
*NODE
1, 0, 0, 0
2, 5, 0, 0
3, 20, 0, 0
4, 50, 0, 0
5, 100, 0, 0
6, 100, -100, 0
7, 0, -100, 0
8, 0, 0.01, 0
9, 13.96445, 5.01, 0
10, 13.96445, 20.01, 0
11, 0, 20.01, 0
12, 0, 5.01, 0
13, 0.079365079365022, 0, 0
14, 0.15873015873004, 0, 0
15, 0.23809523809503, 0, 0
16, 0.31746031746004, 0, 0
17, 0.39682539682506, 0, 0
18, 0.47619047619009, 0, 0
19, 0.55555555555511, 0, 0
20, 0.6349206349201, 0, 0
** ... 67326 like lines cut
*ELEMENT, type=CAX6, ELSET=substrate_elems
605, 6534, 11395, 6579, 11892, 11891, 11890
606, 11789, 11813, 6273, 11895, 11894, 11893
607, 6882, 6927, 6926, 11898, 11897, 11896
608, 8675, 11446, 6903, 11901, 11900, 11899
609, 1364, 7003, 6989, 11904, 11903, 11902
610, 526, 6200, 1229, 11907, 11906, 11905
611, 6736, 11223, 6208, 11910, 11909, 11908
612, 6120, 7000, 1341, 11913, 11912, 11911
613, 1229, 6765, 1368, 11916, 11915, 11914
614, 1356, 9658, 6227, 11919, 11918, 11917
615, 6225, 6226, 1211, 11922, 11921, 11920
616, 6677, 10857, 1974, 11925, 11924, 11923
617, 142, 6252, 143, 11927, 11926, 219
618, 6320, 10948, 6980, 11930, 11929, 11928
619, 1341, 7001, 6120, 11932, 11931, 11911
620, 10762, 11148, 6742, 11935, 11934, 11933
621, 5933, 7020, 5931, 11938, 11937, 11936
622, 529, 1366, 530, 11940, 11939, 673
623, 6980, 10948, 1338, 11929, 11942, 11941
624, 5943, 7020, 5933, 11944, 11938, 11943
** ... 21711 like lines cut
*ELEMENT, type=CAX6, ELSET=indenter_elems
22336, 49847, 44812, 49848, 50005, 50006, 50007
22337, 49762, 49763, 49960, 50008, 50009, 50010
22338, 44757, 44530, 47569, 50011, 50012, 50013
22339, 44522, 44731, 49767, 50014, 50015, 50016
22340, 44717, 49588, 49741, 50017, 50018, 50019
22341, 47601, 47602, 47634, 50020, 50021, 50022
22342, 49594, 48452, 49641, 50023, 50024, 50025
22343, 44637, 44775, 49545, 50026, 50027, 50028
22344, 44699, 48833, 49761, 50029, 50030, 50031
22345, 44321, 47470, 47489, 50032, 50033, 50034
22346, 49618, 44506, 49716, 50035, 50036, 50037
22347, 47593, 44370, 47595, 50038, 50039, 50040
22348, 44718, 44358, 44728, 50041, 50042, 50043
22349, 49573, 47776, 49743, 50044, 50045, 50046
22350, 44498, 47893, 49700, 50047, 50048, 50049
22351, 48925, 44499, 48926, 50050, 50051, 50052
22352, 47485, 44817, 49854, 50053, 50054, 50055
22353, 44797, 44851, 49744, 50056, 50057, 50058
22354, 47486, 47485, 49854, 50059, 50055, 50060
22355, 47562, 47575, 48747, 50061, 50062, 50063
** ... 11619 like lines cut

** Element sets for sections
*ELSET, ELSET=substrate, GENERATE
605, 22335, 1
*ELSET, ELSET=indenter, GENERATE
22336, 33974, 1

** ============ MATERIALS ============
*MATERIAL, NAME=fe16cr00
*ELASTIC, TYPE=ANISO
307430., 160930., 307430., 160930., 160930., 307430., 0., 0.,
0., 119690., 0., 0., 0., 0., 119690., 0.,
0., 0., 0., 0., 119690., 0.
*MATERIAL, NAME=diamond
*ELASTIC
1141000., 0.07

*SOLID SECTION, ELSET=substrate, MATERIAL=fe16cr00
*SOLID SECTION, ELSET=indenter, MATERIAL=diamond

** ============ CONTACT ============
*SURFACE, NAME=surf_sub, TYPE=ELEMENT
1194, S3
18199, S3
18200, S3
18201, S3
18202, S3
18203, S3
18204, S3
18205, S3
18206, S3
18207, S3
18213, S3
18214, S3
18215, S3
18216, S3
18217, S3
18218, S3
18220, S3
18221, S3
18222, S3
18223, S3
** ... 43 like lines cut
*SURFACE, NAME=surf_ind, TYPE=ELEMENT
22360, S1
22434, S1
22550, S1
22587, S1
22704, S1
22766, S3
22855, S1
23039, S1
23044, S1
23188, S1
23371, S1
23413, S1
23414, S1
23415, S1
23417, S1
23420, S1
23423, S1
23426, S1
23427, S1
23429, S1
** ... 90 like lines cut
*SURFACE INTERACTION, NAME=frictionless
*SURFACE BEHAVIOR, PRESSURE-OVERCLOSURE=LINEAR
150000., 150.0
*CONTACT PAIR, INTERACTION=frictionless, TYPE=SURFACE TO SURFACE
surf_ind, surf_sub

** ============ BOUNDARY CONDITIONS ============
*NSET, NSET=nset_bottom
6, 7, 422, 423, 424, 425, 426, 427, 428, 429, 430, 431, 432, 433, 434, 435,
436, 437, 438, 439, 440, 441, 442, 443, 444, 445, 446, 447, 448, 449, 450, 451,
452, 453, 454, 455, 456, 457, 458, 459, 460
*BOUNDARY
nset_bottom, 1, 2, 0.0
*NSET, NSET=nset_sub_axis
1, 7, 461, 462, 463, 464, 465, 466, 467, 468, 469, 470, 471, 472, 473, 474,
475, 476, 477, 478, 479, 480, 481, 482, 483, 484, 485, 486, 487, 488, 489, 490,
491, 492, 493, 494, 495, 496, 497, 498, 499, 500, 501, 502, 503, 504, 505, 506,
507, 508, 509, 510, 511, 512, 513, 514, 515, 516, 517, 518, 519, 520, 521, 522,
523, 524, 525, 526, 527, 528, 529, 530, 531, 532, 533, 534, 535, 536, 537, 538,
539, 540, 541, 542, 543, 544, 545, 546, 547, 548, 549, 550, 551, 552, 553, 554,
555, 556, 557, 558, 559, 560, 561, 562, 563, 564, 565, 566, 567, 568, 569, 570,
571, 572, 573, 574, 575, 576, 577, 578, 579, 580, 581, 582, 583, 584, 585, 586,
587, 588, 589, 590, 591, 592, 593, 594, 595, 596, 597, 598, 599, 600, 601, 602,
603, 604, 605, 606, 607, 608, 609, 610, 611, 612, 613, 614, 615, 616, 617, 618,
619, 620, 621, 622, 623, 624, 625, 626, 627, 628, 629, 630, 631, 632, 633, 634,
635, 636, 637, 638, 639, 640, 641, 642, 643, 644, 645, 646, 647, 648, 649, 650,
651, 652, 653, 654, 655, 656, 657, 658, 659, 660, 661, 662, 663, 664, 665, 666,
667, 668, 669, 670, 671, 672, 673, 674, 675, 676, 677, 678, 679, 680, 681, 682,
683, 684, 685, 686, 687, 688, 689, 690, 691, 692, 693, 694, 695, 696, 697, 698,
699, 700, 701, 702, 703, 704, 705, 706, 707, 708, 709, 710, 711, 712, 713, 714,
715, 716, 717, 718, 719, 720, 721, 722, 723, 724, 725, 726, 727, 728, 729, 730,
731, 732, 733, 734, 735, 736, 737, 738, 739, 740, 741, 742, 743, 744, 745, 746,
747
*BOUNDARY
nset_sub_axis, 1, 1, 0.0
*NSET, NSET=nset_sub_right
5, 6, 383, 384, 385, 386, 387, 388, 389, 390, 391, 392, 393, 394, 395, 396,
397, 398, 399, 400, 401, 402, 403, 404, 405, 406, 407, 408, 409, 410, 411, 412,
413, 414, 415, 416, 417, 418, 419, 420, 421
*BOUNDARY
nset_sub_right, 1, 1, 0.0
*NSET, NSET=nset_ind_axis
8, 11, 12, 1023, 1024, 1025, 1026, 1027, 1028, 1029, 1030, 1031, 1032, 1033, 1034, 1035,
1036, 1037, 1038, 1039, 1040, 1041, 1042, 1043, 1044, 1045, 1046, 1047, 1048, 1049, 1050, 1051,
1052, 1053, 1054, 1055, 1056, 1057, 1058, 1059, 1060, 1061, 1062, 1063, 1064, 1065, 1066, 1067,
1068, 1069, 1070, 1071, 1072, 1073, 1074, 1075, 1076, 1077, 1078, 1079, 1080, 1081, 1082, 1083,
1084, 1085, 1086, 1087, 1088, 1089, 1090, 1091, 1092, 1093, 1094, 1095, 1096, 1097, 1098, 1099,
1100, 1101, 1102, 1103, 1104, 1105, 1106, 1107, 1108, 1109, 1110, 1111, 1112, 1113, 1114, 1115,
1116, 1117, 1118, 1119, 1120, 1121, 1122, 1123, 1124, 1125, 1126, 1127, 1128, 1129, 1130, 1131,
1132, 1133, 1134, 1135, 1136, 1137, 1138, 1139, 1140, 1141, 1142, 1143, 1144, 1145, 1146, 1147,
1148, 1149, 1150, 1151, 1152, 1153, 1154, 1155, 1156, 1157, 1158, 1159, 1160, 1161, 1162, 1163,
1164, 1165, 1166, 1167, 1168, 1169, 1170, 1171, 1172, 1173, 1174, 1175, 1176, 1177, 1178, 1179,
1180, 1181, 1182, 1183, 1184, 1185, 1186, 1187, 1188, 1189, 1190, 1191, 1192, 1193, 1194, 1195,
1196, 1197, 1198, 1199, 1200, 1201, 1202, 1203, 1204, 1205, 1206, 1207, 1208
*BOUNDARY
nset_ind_axis, 1, 1, 0.0

** ============ STEP ============
*NSET, NSET=nset_ind_top
10, 11, 1004, 1005, 1006, 1007, 1008, 1009, 1010, 1011, 1012, 1013, 1014, 1015, 1016, 1017,
1018, 1019, 1020, 1021, 1022
*STEP, NLGEOM, INC=1000, UNSYM
*STATIC
1e-5, 0.1, 1e-12, 0.0005
*BOUNDARY
nset_ind_top, 2, 2, -0.10100
*NODE PRINT, NSET=nset_ind_top, TOTALS=YES
U, RF
*NODE FILE
U
*EL FILE
S, E
*END STEP

*STEP, NLGEOM, INC=1000, UNSYM
*STATIC
1e-5, 0.1, 1e-12, 0.0005
*BOUNDARY
nset_ind_top, 2, 2, -0.20200
*NODE PRINT, NSET=nset_ind_top, TOTALS=YES
U, RF
*NODE FILE
U
*EL FILE
S, E
*END STEP

*STEP, NLGEOM, INC=1000, UNSYM
*STATIC
1e-5, 0.1, 1e-12, 0.0005
*BOUNDARY
nset_ind_top, 2, 2, -0.30300
*NODE PRINT, NSET=nset_ind_top, TOTALS=YES
U, RF
*NODE FILE
U
*EL FILE
S, E
*END STEP

*STEP, NLGEOM, INC=1000, UNSYM
*STATIC
1e-5, 0.1, 1e-12, 0.0005
*BOUNDARY
nset_ind_top, 2, 2, -0.40400
*NODE PRINT, NSET=nset_ind_top, TOTALS=YES
U, RF
*NODE FILE
U
*EL FILE
S, E
*END STEP

*STEP, NLGEOM, INC=1000, UNSYM
*STATIC
1e-5, 0.1, 1e-12, 0.0005
*BOUNDARY
nset_ind_top, 2, 2, -0.50500
*NODE PRINT, NSET=nset_ind_top, TOTALS=YES
U, RF
*NODE FILE
U
*EL FILE
S, E
*END STEP

*STEP, NLGEOM, INC=1000, UNSYM
*STATIC
1e-5, 0.1, 1e-12, 0.0005
*BOUNDARY
nset_ind_top, 2, 2, -0.60600
*NODE PRINT, NSET=nset_ind_top, TOTALS=YES
U, RF
*NODE FILE
U
*EL FILE
S, E
*END STEP

*STEP, NLGEOM, INC=1000, UNSYM
*STATIC
1e-5, 0.1, 1e-12, 0.0005
*BOUNDARY
nset_ind_top, 2, 2, -0.70700
*NODE PRINT, NSET=nset_ind_top, TOTALS=YES
U, RF
*NODE FILE
U
*EL FILE
S, E
*END STEP

*STEP, NLGEOM, INC=1000, UNSYM
*STATIC
1e-5, 0.1, 1e-12, 0.0005
*BOUNDARY
nset_ind_top, 2, 2, -0.80800
*NODE PRINT, NSET=nset_ind_top, TOTALS=YES
U, RF
*NODE FILE
U
*EL FILE
S, E
*END STEP

*STEP, NLGEOM, INC=1000, UNSYM
*STATIC
1e-5, 0.1, 1e-12, 0.0005
*BOUNDARY
nset_ind_top, 2, 2, -0.90900
*NODE PRINT, NSET=nset_ind_top, TOTALS=YES
U, RF
*NODE FILE
U
*EL FILE
S, E
*END STEP

*STEP, NLGEOM, INC=1000, UNSYM
*STATIC
1e-5, 0.1, 1e-12, 0.0005
*BOUNDARY
nset_ind_top, 2, 2, -1.01000
*NODE PRINT, NSET=nset_ind_top, TOTALS=YES
U, RF
*NODE FILE
U
*EL FILE
S, E
*RESTART, WRITE
*END STEP
** ============================================================
** STEP 11 — UNLOADING (90% unload for Oliver-Pharr)
** Ramp U2 from -1.01000 um back to -0.10100 um
** step_time=0.1, same floor/max as loading steps
** BC value is cumulative from reference state (absolute target)
** ============================================================
*STEP, NLGEOM, INC=1000, UNSYM
*STATIC
1e-5, 0.1, 1e-12, 0.0005
*BOUNDARY
nset_ind_top, 2, 2, -0.16000
*NODE PRINT, NSET=nset_ind_top, TOTALS=YES
U, RF
*NODE FILE
U
*EL FILE
S, E
*END STEP
