*HEADING
test
*NODE
1, 0.0, 0.0, 0.0
2, 1.0, 0.0, 0.0
3, 0.5, 1.0, 0.0
*ELEMENT, TYPE=CAX6, ELSET=part1
1, 1, 2, 3
*MATERIAL, NAME=MAT1
*ELASTIC
200.0, 0.3
*SOLID SECTION, ELSET=part1, MATERIAL=MAT1
*STEP
*STATIC
0.1, 1.0
*BOUNDARY
1, 1, 2, 0.0
*END STEP
