** Fe-Cr Material Cards — GP Surrogate [corrected]
** Units: GPa  (multiply by 1000 for MPa in ABAQUS/CalculiX)
** ABAQUS:    *Elastic, type=ANISOTROPIC
** CalculiX:  *ELASTIC, TYPE=ANISO  (same Voigt order)
** Cubic Voigt order: C11 C12 C11 C12 C12 C11 C44 C44 / C44

** Fe16Cr0  B=207.97 GPa  ZenerA=1.5826  C11±0.97  C12±0.98  C44±0.92
*Material, name=Fe16Cr0
*Elastic, type=ANISOTROPIC
308.050, 157.927, 308.050, 157.927, 157.927, 308.050, 118.791, 118.791,
118.791

** Fe12Cr4  B=125.14 GPa  ZenerA=2.5868  C11±0.86  C12±0.92  C44±0.70
*Material, name=Fe12Cr4
*Elastic, type=ANISOTROPIC
181.216, 97.105, 181.216, 97.105, 97.105, 181.216, 108.788, 108.788,
108.788

** Fe8Cr8  B=204.44 GPa  ZenerA=1.9368  C11±0.94  C12±0.97  C44±0.80
*Material, name=Fe8Cr8
*Elastic, type=ANISOTROPIC
288.885, 162.225, 288.885, 162.225, 162.225, 288.885, 122.660, 122.660,
122.660

** Fe4Cr12  B=243.34 GPa  ZenerA=1.0329  C11±2.85  C12±3.07  C44±2.16
*Material, name=Fe4Cr12
*Elastic, type=ANISOTROPIC
388.446, 170.784, 388.446, 170.784, 170.784, 388.446, 112.410, 112.410,
112.410

** Fe0Cr16  B=194.63 GPa  ZenerA=0.5293  C11±0.48  C12±0.48  C44±0.47
*Material, name=Fe0Cr16
*Elastic, type=ANISOTROPIC
446.968, 68.459, 446.968, 68.459, 68.459, 446.968, 100.171, 100.171,
100.171
