** Fe-Cr Material Cards — GP Surrogate [corrected]
** Units: GPa  (multiply by 1000 for MPa in ABAQUS/CalculiX)
** ABAQUS:    *Elastic, type=ANISOTROPIC
** CalculiX:  *ELASTIC, TYPE=ANISO  (same Voigt order)
** Cubic Voigt order: C11 C12 C11 C12 C12 C11 C44 C44 / C44

** Fe16Cr0  B=210.24 GPa  ZenerA=1.5647  C11±1.00  C12±1.00  C44±0.84
*Material, name=Fe16Cr0
*Elastic, type=ANISOTROPIC
311.999, 159.364, 311.999, 159.364, 159.364, 311.999, 119.413, 119.413,
119.413

** Fe12Cr4  B=127.57 GPa  ZenerA=2.6216  C11±1.08  C12±1.02  C44±0.58
*Material, name=Fe12Cr4
*Elastic, type=ANISOTROPIC
184.349, 99.179, 184.349, 99.179, 99.179, 184.349, 111.640, 111.640,
111.640

** Fe8Cr8  B=202.99 GPa  ZenerA=1.9657  C11±1.00  C12±1.00  C44±0.67
*Material, name=Fe8Cr8
*Elastic, type=ANISOTROPIC
285.789, 161.586, 285.789, 161.586, 161.586, 285.789, 122.070, 122.070,
122.070

** Fe4Cr12  B=249.02 GPa  ZenerA=1.0319  C11±4.14  C12±3.91  C44±1.40
*Material, name=Fe4Cr12
*Elastic, type=ANISOTROPIC
393.986, 176.531, 393.986, 176.531, 176.531, 393.986, 112.201, 112.201,
112.201

** Fe0Cr16  B=194.99 GPa  ZenerA=0.5251  C11±0.48  C12±0.48  C44±0.45
*Material, name=Fe0Cr16
*Elastic, type=ANISOTROPIC
447.849, 68.556, 447.849, 68.556, 68.556, 447.849, 99.574, 99.574,
99.574
