** Fe-Cr Material Cards — GP Surrogate [raw]
** Units: GPa  (multiply by 1000 for MPa in ABAQUS/CalculiX)
** ABAQUS:    *Elastic, type=ANISOTROPIC
** CalculiX:  *ELASTIC, TYPE=ANISO  (same Voigt order)
** Cubic Voigt order: C11 C12 C11 C12 C12 C11 C44 C44 / C44

** Fe16Cr0  B=210.31 GPa  ZenerA=1.5661  C11±1.00  C12±1.00  C44±0.83
*Material, name=Fe16Cr0
*Elastic, type=ANISOTROPIC
312.044, 159.445, 312.044, 159.445, 159.445, 312.044, 119.491, 119.491,
119.491

** Fe12Cr4  B=127.82 GPa  ZenerA=2.6297  C11±1.00  C12±1.00  C44±0.57
*Material, name=Fe12Cr4
*Elastic, type=ANISOTROPIC
184.508, 99.476, 184.508, 99.476, 99.476, 184.508, 111.806, 111.806,
111.806

** Fe8Cr8  B=202.81 GPa  ZenerA=1.9726  C11±1.00  C12±1.00  C44±0.57
*Material, name=Fe8Cr8
*Elastic, type=ANISOTROPIC
285.660, 161.390, 285.660, 161.390, 161.390, 285.660, 122.567, 122.567,
122.567

** Fe4Cr12  B=250.52 GPa  ZenerA=1.0697  C11±1.00  C12±1.00  C44±0.57
*Material, name=Fe4Cr12
*Elastic, type=ANISOTROPIC
393.943, 178.801, 393.943, 178.801, 178.801, 393.943, 115.064, 115.064,
115.064

** Fe0Cr16  B=194.91 GPa  ZenerA=0.5178  C11±1.00  C12±1.00  C44±0.83
*Material, name=Fe0Cr16
*Elastic, type=ANISOTROPIC
447.772, 68.476, 447.772, 68.476, 68.476, 447.772, 98.207, 98.207,
98.207
