** Fe-Cr Material Cards — GP Surrogate [corrected]
** Units: GPa  (multiply by 1000 for MPa in ABAQUS/CalculiX)
** ABAQUS:    *Elastic, type=ANISOTROPIC
** CalculiX:  *ELASTIC, TYPE=ANISO  (same Voigt order)
** Cubic Voigt order: C11 C12 C11 C12 C12 C11 C44 C44 / C44

** Fe16Cr0  B=207.94 GPa  ZenerA=1.5831  C11±0.97  C12±0.98  C44±0.92
*MATERIAL, NAME=Fe16Cr0
*ELASTIC, TYPE=ANISO
307.987, 157.915, 307.987, 157.915, 157.915, 307.987, 118.791, 118.791,
118.791

** Fe12Cr4  B=125.08 GPa  ZenerA=2.5814  C11±0.92  C12±0.94  C44±0.70
*MATERIAL, NAME=Fe12Cr4
*ELASTIC, TYPE=ANISO
181.270, 96.984, 181.270, 96.984, 96.984, 181.270, 108.788, 108.788,
108.788

** Fe8Cr8  B=204.48 GPa  ZenerA=1.9362  C11±0.94  C12±0.97  C44±0.80
*MATERIAL, NAME=Fe8Cr8
*ELASTIC, TYPE=ANISO
288.946, 162.243, 288.946, 162.243, 162.243, 288.946, 122.660, 122.660,
122.660

** Fe4Cr12  B=243.33 GPa  ZenerA=1.0330  C11±2.84  C12±3.07  C44±2.16
*MATERIAL, NAME=Fe4Cr12
*ELASTIC, TYPE=ANISO
388.418, 170.780, 388.418, 170.780, 170.780, 388.418, 112.410, 112.410,
112.410

** Fe0Cr16  B=194.62 GPa  ZenerA=0.5293  C11±0.48  C12±0.48  C44±0.47
*MATERIAL, NAME=Fe0Cr16
*ELASTIC, TYPE=ANISO
446.950, 68.458, 446.950, 68.458, 68.458, 446.950, 100.171, 100.171,
100.171
