** Fe-Cr Material Cards — GP Surrogate [raw]
** Units: GPa  (multiply by 1000 for MPa in ABAQUS/CalculiX)
** ABAQUS:    *Elastic, type=ANISOTROPIC
** CalculiX:  *ELASTIC, TYPE=ANISO  (same Voigt order)
** Cubic Voigt order: C11 C12 C11 C12 C12 C11 C44 C44 / C44

** Fe16Cr0  B=208.72 GPa  ZenerA=1.5930  C11±0.98  C12±0.99  C44±0.88
*MATERIAL, NAME=Fe16Cr0
*ELASTIC, TYPE=ANISO
309.161, 158.499, 309.161, 158.499, 158.499, 309.161, 119.999, 119.999,
119.999

** Fe12Cr4  B=126.42 GPa  ZenerA=2.6826  C11±0.94  C12±0.98  C44±0.55
*MATERIAL, NAME=Fe12Cr4
*ELASTIC, TYPE=ANISO
181.868, 98.695, 181.868, 98.695, 98.695, 181.868, 111.560, 111.560,
111.560

** Fe8Cr8  B=200.84 GPa  ZenerA=2.0249  C11±0.94  C12±0.98  C44±0.54
*MATERIAL, NAME=Fe8Cr8
*ELASTIC, TYPE=ANISO
282.120, 160.205, 282.120, 160.205, 160.205, 282.120, 123.433, 123.433,
123.433

** Fe4Cr12  B=249.11 GPa  ZenerA=1.0707  C11±0.94  C12±0.98  C44±0.55
*MATERIAL, NAME=Fe4Cr12
*ELASTIC, TYPE=ANISO
391.977, 177.683, 391.977, 177.683, 177.683, 391.977, 114.721, 114.721,
114.721

** Fe0Cr16  B=193.05 GPa  ZenerA=0.5268  C11±0.98  C12±0.99  C44±0.88
*MATERIAL, NAME=Fe0Cr16
*ELASTIC, TYPE=ANISO
443.520, 67.818, 443.520, 67.818, 67.818, 443.520, 98.964, 98.964,
98.964
